
---------- Begin Simulation Statistics ----------
final_tick                                58327519500                       # Number of ticks from beginning of simulation (restored from checkpoints and never reset)
host_mem_usage                                 907444                       # Number of bytes of host memory used
host_seconds                                  1296.45                       # Real time elapsed on the host
host_tick_rate                               44990143                       # Simulator tick rate (ticks/s)
sim_freq                                 1000000000000                       # Frequency of simulated ticks
sim_seconds                                  0.058328                       # Number of seconds simulated
sim_ticks                                 58327519500                       # Number of ticks simulated
system.cpu.cc_regfile_reads                 163178316                       # number of cc regfile reads
system.cpu.cc_regfile_writes                134245513                       # number of cc regfile writes
system.cpu.committedInsts::0                100000000                       # Number of Instructions Simulated
system.cpu.committedInsts::1                 51327108                       # Number of Instructions Simulated
system.cpu.committedInsts::total            151327108                       # Number of Instructions Simulated
system.cpu.committedOps::0                  146474675                       # Number of Ops (including micro ops) Simulated
system.cpu.committedOps::1                  108015143                       # Number of Ops (including micro ops) Simulated
system.cpu.committedOps::total              254489818                       # Number of Ops (including micro ops) Simulated
system.cpu.cpi::0                            1.166550                       # CPI: Cycles Per Instruction
system.cpu.cpi::1                            2.272776                       # CPI: Cycles Per Instruction
system.cpu.cpi_total                         0.770880                       # CPI: Total CPI of All Threads
system.cpu.fp_regfile_reads                   1444690                       # number of floating regfile reads
system.cpu.fp_regfile_writes                  1086128                       # number of floating regfile writes
system.cpu.idleCycles                           41668                       # Total number of cycles that the CPU has spent unscheduled due to idling
system.cpu.iew.branchMispredicts               851016                       # Number of branch mispredicts detected at execute
system.cpu.iew.exec_branches::0               7178747                       # Number of branches executed
system.cpu.iew.exec_branches::1              14571717                       # Number of branches executed
system.cpu.iew.exec_branches::total          21750464                       # Number of branches executed
system.cpu.iew.exec_nop::0                          0                       # number of nop insts executed
system.cpu.iew.exec_nop::1                          0                       # number of nop insts executed
system.cpu.iew.exec_nop::total                      0                       # number of nop insts executed
system.cpu.iew.exec_rate                     2.237398                       # Inst execution rate
system.cpu.iew.exec_refs::0                  22390140                       # number of memory reference insts executed
system.cpu.iew.exec_refs::1                  26132612                       # number of memory reference insts executed
system.cpu.iew.exec_refs::total              48522752                       # number of memory reference insts executed
system.cpu.iew.exec_stores::0                 4341851                       # Number of stores executed
system.cpu.iew.exec_stores::1                13047189                       # Number of stores executed
system.cpu.iew.exec_stores::total            17389040                       # Number of stores executed
system.cpu.iew.exec_swp::0                          0                       # number of swp insts executed
system.cpu.iew.exec_swp::1                          0                       # number of swp insts executed
system.cpu.iew.exec_swp::total                      0                       # number of swp insts executed
system.cpu.iew.iewBlockCycles                  660751                       # Number of cycles IEW is blocking
system.cpu.iew.iewDispLoadInsts              31147837                       # Number of dispatched load instructions
system.cpu.iew.iewDispNonSpecInsts                382                       # Number of dispatched non-speculative instructions
system.cpu.iew.iewDispSquashedInsts                 0                       # Number of squashed instructions skipped by dispatch
system.cpu.iew.iewDispStoreInsts             17540909                       # Number of dispatched store instructions
system.cpu.iew.iewDispatchedInsts           264187009                       # Number of instructions dispatched to IQ
system.cpu.iew.iewExecLoadInsts::0           18048289                       # Number of load instructions executed
system.cpu.iew.iewExecLoadInsts::1           13085423                       # Number of load instructions executed
system.cpu.iew.iewExecLoadInsts::total       31133712                       # Number of load instructions executed
system.cpu.iew.iewExecSquashedInsts            947672                       # Number of squashed instructions skipped in execute
system.cpu.iew.iewExecutedInsts             261003709                       # Number of executed instructions
system.cpu.iew.iewIQFullEvents                   2469                       # Number of times the IQ has become full, causing a stall
system.cpu.iew.iewIdleCycles                        0                       # Number of cycles IEW is idle
system.cpu.iew.iewLSQFullEvents                 68689                       # Number of times the LSQ has become full, causing a stall
system.cpu.iew.iewSquashCycles                 865085                       # Number of cycles IEW is squashing
system.cpu.iew.iewUnblockCycles                 72436                       # Number of cycles IEW is unblocking
system.cpu.iew.memOrderViolationEvents           1029                       # Number of memory order violations
system.cpu.iew.predictedNotTakenIncorrect       284435                       # Number of branches that were predicted not taken incorrectly
system.cpu.iew.predictedTakenIncorrect         566581                       # Number of branches that were predicted taken incorrectly
system.cpu.iew.wb_consumers::0              192465675                       # num instructions consuming a value
system.cpu.iew.wb_consumers::1               96900113                       # num instructions consuming a value
system.cpu.iew.wb_consumers::total          289365788                       # num instructions consuming a value
system.cpu.iew.wb_count::0                  149071790                       # cumulative count of insts written-back
system.cpu.iew.wb_count::1                  111350376                       # cumulative count of insts written-back
system.cpu.iew.wb_count::total              260422166                       # cumulative count of insts written-back
system.cpu.iew.wb_fanout::0                  0.555579                       # average fanout of values written-back
system.cpu.iew.wb_fanout::1                  0.714020                       # average fanout of values written-back
system.cpu.iew.wb_fanout::total              0.608636                       # average fanout of values written-back
system.cpu.iew.wb_producers::0              106929821                       # num instructions producing a value
system.cpu.iew.wb_producers::1               69188629                       # num instructions producing a value
system.cpu.iew.wb_producers::total          176118450                       # num instructions producing a value
system.cpu.iew.wb_rate::0                    1.277886                       # insts written-back per cycle
system.cpu.iew.wb_rate::1                    0.954527                       # insts written-back per cycle
system.cpu.iew.wb_rate::total                2.232412                       # insts written-back per cycle
system.cpu.iew.wb_sent::0                   149094093                       # cumulative count of insts sent to commit
system.cpu.iew.wb_sent::1                   111763024                       # cumulative count of insts sent to commit
system.cpu.iew.wb_sent::total               260857117                       # cumulative count of insts sent to commit
system.cpu.int_regfile_reads                454814309                       # number of integer regfile reads
system.cpu.int_regfile_writes               220971648                       # number of integer regfile writes
system.cpu.ipc::0                            0.857228                       # IPC: Instructions Per Cycle
system.cpu.ipc::1                            0.439990                       # IPC: Instructions Per Cycle
system.cpu.ipc_total                         1.297219                       # IPC: Total IPC of All Threads
system.cpu.iq.FU_type_0::No_OpClass             50736      0.03%      0.03% # Type of FU issued
system.cpu.iq.FU_type_0::IntAlu             127456924     85.01%     85.04% # Type of FU issued
system.cpu.iq.FU_type_0::IntMult                   15      0.00%     85.04% # Type of FU issued
system.cpu.iq.FU_type_0::IntDiv                    48      0.00%     85.04% # Type of FU issued
system.cpu.iq.FU_type_0::FloatAdd                 226      0.00%     85.04% # Type of FU issued
system.cpu.iq.FU_type_0::FloatCmp                   0      0.00%     85.04% # Type of FU issued
system.cpu.iq.FU_type_0::FloatCvt                   0      0.00%     85.04% # Type of FU issued
system.cpu.iq.FU_type_0::FloatMult                  0      0.00%     85.04% # Type of FU issued
system.cpu.iq.FU_type_0::FloatMultAcc               0      0.00%     85.04% # Type of FU issued
system.cpu.iq.FU_type_0::FloatDiv                   0      0.00%     85.04% # Type of FU issued
system.cpu.iq.FU_type_0::FloatMisc                  0      0.00%     85.04% # Type of FU issued
system.cpu.iq.FU_type_0::FloatSqrt                  0      0.00%     85.04% # Type of FU issued
system.cpu.iq.FU_type_0::SimdAdd                   44      0.00%     85.04% # Type of FU issued
system.cpu.iq.FU_type_0::SimdAddAcc                 0      0.00%     85.04% # Type of FU issued
system.cpu.iq.FU_type_0::SimdAlu                  558      0.00%     85.04% # Type of FU issued
system.cpu.iq.FU_type_0::SimdCmp                   12      0.00%     85.04% # Type of FU issued
system.cpu.iq.FU_type_0::SimdCvt                  287      0.00%     85.04% # Type of FU issued
system.cpu.iq.FU_type_0::SimdMisc                 486      0.00%     85.04% # Type of FU issued
system.cpu.iq.FU_type_0::SimdMult                   0      0.00%     85.04% # Type of FU issued
system.cpu.iq.FU_type_0::SimdMultAcc                0      0.00%     85.04% # Type of FU issued
system.cpu.iq.FU_type_0::SimdShift                 50      0.00%     85.04% # Type of FU issued
system.cpu.iq.FU_type_0::SimdShiftAcc               0      0.00%     85.04% # Type of FU issued
system.cpu.iq.FU_type_0::SimdDiv                    0      0.00%     85.04% # Type of FU issued
system.cpu.iq.FU_type_0::SimdSqrt                   0      0.00%     85.04% # Type of FU issued
system.cpu.iq.FU_type_0::SimdFloatAdd               1      0.00%     85.04% # Type of FU issued
system.cpu.iq.FU_type_0::SimdFloatAlu               0      0.00%     85.04% # Type of FU issued
system.cpu.iq.FU_type_0::SimdFloatCmp               0      0.00%     85.04% # Type of FU issued
system.cpu.iq.FU_type_0::SimdFloatCvt               6      0.00%     85.04% # Type of FU issued
system.cpu.iq.FU_type_0::SimdFloatDiv               1      0.00%     85.04% # Type of FU issued
system.cpu.iq.FU_type_0::SimdFloatMisc              0      0.00%     85.04% # Type of FU issued
system.cpu.iq.FU_type_0::SimdFloatMult              0      0.00%     85.04% # Type of FU issued
system.cpu.iq.FU_type_0::SimdFloatMultAcc            0      0.00%     85.04% # Type of FU issued
system.cpu.iq.FU_type_0::SimdFloatSqrt              0      0.00%     85.04% # Type of FU issued
system.cpu.iq.FU_type_0::SimdReduceAdd              0      0.00%     85.04% # Type of FU issued
system.cpu.iq.FU_type_0::SimdReduceAlu              0      0.00%     85.04% # Type of FU issued
system.cpu.iq.FU_type_0::SimdReduceCmp              0      0.00%     85.04% # Type of FU issued
system.cpu.iq.FU_type_0::SimdFloatReduceAdd            0      0.00%     85.04% # Type of FU issued
system.cpu.iq.FU_type_0::SimdFloatReduceCmp            0      0.00%     85.04% # Type of FU issued
system.cpu.iq.FU_type_0::SimdAes                    0      0.00%     85.04% # Type of FU issued
system.cpu.iq.FU_type_0::SimdAesMix                 0      0.00%     85.04% # Type of FU issued
system.cpu.iq.FU_type_0::SimdSha1Hash               0      0.00%     85.04% # Type of FU issued
system.cpu.iq.FU_type_0::SimdSha1Hash2              0      0.00%     85.04% # Type of FU issued
system.cpu.iq.FU_type_0::SimdSha256Hash             0      0.00%     85.04% # Type of FU issued
system.cpu.iq.FU_type_0::SimdSha256Hash2            0      0.00%     85.04% # Type of FU issued
system.cpu.iq.FU_type_0::SimdShaSigma2              0      0.00%     85.04% # Type of FU issued
system.cpu.iq.FU_type_0::SimdShaSigma3              0      0.00%     85.04% # Type of FU issued
system.cpu.iq.FU_type_0::SimdPredAlu                0      0.00%     85.04% # Type of FU issued
system.cpu.iq.FU_type_0::MemRead             17918446     11.95%     96.99% # Type of FU issued
system.cpu.iq.FU_type_0::MemWrite             3925371      2.62%     99.61% # Type of FU issued
system.cpu.iq.FU_type_0::FloatMemRead          132188      0.09%     99.70% # Type of FU issued
system.cpu.iq.FU_type_0::FloatMemWrite         449277      0.30%    100.00% # Type of FU issued
system.cpu.iq.FU_type_0::IprAccess                  0      0.00%    100.00% # Type of FU issued
system.cpu.iq.FU_type_0::InstPrefetch               0      0.00%    100.00% # Type of FU issued
system.cpu.iq.FU_type_0::total              149934676                       # Type of FU issued
system.cpu.iq.FU_type_1::No_OpClass           2458602      2.19%      2.19% # Type of FU issued
system.cpu.iq.FU_type_1::IntAlu              82480253     73.59%     75.78% # Type of FU issued
system.cpu.iq.FU_type_1::IntMult               834451      0.74%     76.53% # Type of FU issued
system.cpu.iq.FU_type_1::IntDiv                  1167      0.00%     76.53% # Type of FU issued
system.cpu.iq.FU_type_1::FloatAdd                3643      0.00%     76.53% # Type of FU issued
system.cpu.iq.FU_type_1::FloatCmp                   0      0.00%     76.53% # Type of FU issued
system.cpu.iq.FU_type_1::FloatCvt                   0      0.00%     76.53% # Type of FU issued
system.cpu.iq.FU_type_1::FloatMult                  0      0.00%     76.53% # Type of FU issued
system.cpu.iq.FU_type_1::FloatMultAcc               0      0.00%     76.53% # Type of FU issued
system.cpu.iq.FU_type_1::FloatDiv                   0      0.00%     76.53% # Type of FU issued
system.cpu.iq.FU_type_1::FloatMisc                  0      0.00%     76.53% # Type of FU issued
system.cpu.iq.FU_type_1::FloatSqrt                  0      0.00%     76.53% # Type of FU issued
system.cpu.iq.FU_type_1::SimdAdd                  734      0.00%     76.53% # Type of FU issued
system.cpu.iq.FU_type_1::SimdAddAcc                 0      0.00%     76.53% # Type of FU issued
system.cpu.iq.FU_type_1::SimdAlu                 1493      0.00%     76.53% # Type of FU issued
system.cpu.iq.FU_type_1::SimdCmp                    0      0.00%     76.53% # Type of FU issued
system.cpu.iq.FU_type_1::SimdCvt                  258      0.00%     76.53% # Type of FU issued
system.cpu.iq.FU_type_1::SimdMisc                6733      0.01%     76.54% # Type of FU issued
system.cpu.iq.FU_type_1::SimdMult                   0      0.00%     76.54% # Type of FU issued
system.cpu.iq.FU_type_1::SimdMultAcc                0      0.00%     76.54% # Type of FU issued
system.cpu.iq.FU_type_1::SimdShift                  7      0.00%     76.54% # Type of FU issued
system.cpu.iq.FU_type_1::SimdShiftAcc               0      0.00%     76.54% # Type of FU issued
system.cpu.iq.FU_type_1::SimdDiv                    0      0.00%     76.54% # Type of FU issued
system.cpu.iq.FU_type_1::SimdSqrt                   0      0.00%     76.54% # Type of FU issued
system.cpu.iq.FU_type_1::SimdFloatAdd              12      0.00%     76.54% # Type of FU issued
system.cpu.iq.FU_type_1::SimdFloatAlu               0      0.00%     76.54% # Type of FU issued
system.cpu.iq.FU_type_1::SimdFloatCmp               0      0.00%     76.54% # Type of FU issued
system.cpu.iq.FU_type_1::SimdFloatCvt            3052      0.00%     76.54% # Type of FU issued
system.cpu.iq.FU_type_1::SimdFloatDiv               1      0.00%     76.54% # Type of FU issued
system.cpu.iq.FU_type_1::SimdFloatMisc              0      0.00%     76.54% # Type of FU issued
system.cpu.iq.FU_type_1::SimdFloatMult              1      0.00%     76.54% # Type of FU issued
system.cpu.iq.FU_type_1::SimdFloatMultAcc            0      0.00%     76.54% # Type of FU issued
system.cpu.iq.FU_type_1::SimdFloatSqrt              0      0.00%     76.54% # Type of FU issued
system.cpu.iq.FU_type_1::SimdReduceAdd              0      0.00%     76.54% # Type of FU issued
system.cpu.iq.FU_type_1::SimdReduceAlu              0      0.00%     76.54% # Type of FU issued
system.cpu.iq.FU_type_1::SimdReduceCmp              0      0.00%     76.54% # Type of FU issued
system.cpu.iq.FU_type_1::SimdFloatReduceAdd            0      0.00%     76.54% # Type of FU issued
system.cpu.iq.FU_type_1::SimdFloatReduceCmp            0      0.00%     76.54% # Type of FU issued
system.cpu.iq.FU_type_1::SimdAes                    0      0.00%     76.54% # Type of FU issued
system.cpu.iq.FU_type_1::SimdAesMix                 0      0.00%     76.54% # Type of FU issued
system.cpu.iq.FU_type_1::SimdSha1Hash               0      0.00%     76.54% # Type of FU issued
system.cpu.iq.FU_type_1::SimdSha1Hash2              0      0.00%     76.54% # Type of FU issued
system.cpu.iq.FU_type_1::SimdSha256Hash             0      0.00%     76.54% # Type of FU issued
system.cpu.iq.FU_type_1::SimdSha256Hash2            0      0.00%     76.54% # Type of FU issued
system.cpu.iq.FU_type_1::SimdShaSigma2              0      0.00%     76.54% # Type of FU issued
system.cpu.iq.FU_type_1::SimdShaSigma3              0      0.00%     76.54% # Type of FU issued
system.cpu.iq.FU_type_1::SimdPredAlu                0      0.00%     76.54% # Type of FU issued
system.cpu.iq.FU_type_1::MemRead             12178890     10.87%     87.41% # Type of FU issued
system.cpu.iq.FU_type_1::MemWrite            12134509     10.83%     98.23% # Type of FU issued
system.cpu.iq.FU_type_1::FloatMemRead          990465      0.88%     99.12% # Type of FU issued
system.cpu.iq.FU_type_1::FloatMemWrite         990883      0.88%    100.00% # Type of FU issued
system.cpu.iq.FU_type_1::IprAccess                  0      0.00%    100.00% # Type of FU issued
system.cpu.iq.FU_type_1::InstPrefetch               0      0.00%    100.00% # Type of FU issued
system.cpu.iq.FU_type_1::total              112085154                       # Type of FU issued
system.cpu.iq.FU_type::total                262019830      0.00%      0.00% # Type of FU issued
system.cpu.iq.fp_alu_accesses                 5624997                       # Number of floating point alu accesses
system.cpu.iq.fp_inst_queue_reads             8238850                       # Number of floating instruction queue reads
system.cpu.iq.fp_inst_queue_wakeup_accesses      2419186                       # Number of floating instruction queue wakeup accesses
system.cpu.iq.fp_inst_queue_writes            4061038                       # Number of floating instruction queue writes
system.cpu.iq.fu_busy_cnt::0                  9357660                       # FU busy when requested
system.cpu.iq.fu_busy_cnt::1                  8605720                       # FU busy when requested
system.cpu.iq.fu_busy_cnt::total             17963380                       # FU busy when requested
system.cpu.iq.fu_busy_rate::0                0.035714                       # FU busy rate (busy events/executed inst)
system.cpu.iq.fu_busy_rate::1                0.032844                       # FU busy rate (busy events/executed inst)
system.cpu.iq.fu_busy_rate::total            0.068557                       # FU busy rate (busy events/executed inst)
system.cpu.iq.fu_full::No_OpClass                   0      0.00%      0.00% # attempts to use FU when none available
system.cpu.iq.fu_full::IntAlu                12502007     69.60%     69.60% # attempts to use FU when none available
system.cpu.iq.fu_full::IntMult                  39085      0.22%     69.81% # attempts to use FU when none available
system.cpu.iq.fu_full::IntDiv                     164      0.00%     69.82% # attempts to use FU when none available
system.cpu.iq.fu_full::FloatAdd                  2924      0.02%     69.83% # attempts to use FU when none available
system.cpu.iq.fu_full::FloatCmp                     0      0.00%     69.83% # attempts to use FU when none available
system.cpu.iq.fu_full::FloatCvt                     0      0.00%     69.83% # attempts to use FU when none available
system.cpu.iq.fu_full::FloatMult                    0      0.00%     69.83% # attempts to use FU when none available
system.cpu.iq.fu_full::FloatMultAcc                 0      0.00%     69.83% # attempts to use FU when none available
system.cpu.iq.fu_full::FloatDiv                     0      0.00%     69.83% # attempts to use FU when none available
system.cpu.iq.fu_full::FloatMisc                    0      0.00%     69.83% # attempts to use FU when none available
system.cpu.iq.fu_full::FloatSqrt                    0      0.00%     69.83% # attempts to use FU when none available
system.cpu.iq.fu_full::SimdAdd                     92      0.00%     69.83% # attempts to use FU when none available
system.cpu.iq.fu_full::SimdAddAcc                   0      0.00%     69.83% # attempts to use FU when none available
system.cpu.iq.fu_full::SimdAlu                    554      0.00%     69.84% # attempts to use FU when none available
system.cpu.iq.fu_full::SimdCmp                      1      0.00%     69.84% # attempts to use FU when none available
system.cpu.iq.fu_full::SimdCvt                     24      0.00%     69.84% # attempts to use FU when none available
system.cpu.iq.fu_full::SimdMisc                   892      0.00%     69.84% # attempts to use FU when none available
system.cpu.iq.fu_full::SimdMult                     0      0.00%     69.84% # attempts to use FU when none available
system.cpu.iq.fu_full::SimdMultAcc                  0      0.00%     69.84% # attempts to use FU when none available
system.cpu.iq.fu_full::SimdShift                    4      0.00%     69.84% # attempts to use FU when none available
system.cpu.iq.fu_full::SimdShiftAcc                 0      0.00%     69.84% # attempts to use FU when none available
system.cpu.iq.fu_full::SimdDiv                      0      0.00%     69.84% # attempts to use FU when none available
system.cpu.iq.fu_full::SimdSqrt                     0      0.00%     69.84% # attempts to use FU when none available
system.cpu.iq.fu_full::SimdFloatAdd                 0      0.00%     69.84% # attempts to use FU when none available
system.cpu.iq.fu_full::SimdFloatAlu                 0      0.00%     69.84% # attempts to use FU when none available
system.cpu.iq.fu_full::SimdFloatCmp                 0      0.00%     69.84% # attempts to use FU when none available
system.cpu.iq.fu_full::SimdFloatCvt               432      0.00%     69.84% # attempts to use FU when none available
system.cpu.iq.fu_full::SimdFloatDiv                 0      0.00%     69.84% # attempts to use FU when none available
system.cpu.iq.fu_full::SimdFloatMisc                0      0.00%     69.84% # attempts to use FU when none available
system.cpu.iq.fu_full::SimdFloatMult                0      0.00%     69.84% # attempts to use FU when none available
system.cpu.iq.fu_full::SimdFloatMultAcc             0      0.00%     69.84% # attempts to use FU when none available
system.cpu.iq.fu_full::SimdFloatSqrt                0      0.00%     69.84% # attempts to use FU when none available
system.cpu.iq.fu_full::SimdReduceAdd                0      0.00%     69.84% # attempts to use FU when none available
system.cpu.iq.fu_full::SimdReduceAlu                0      0.00%     69.84% # attempts to use FU when none available
system.cpu.iq.fu_full::SimdReduceCmp                0      0.00%     69.84% # attempts to use FU when none available
system.cpu.iq.fu_full::SimdFloatReduceAdd            0      0.00%     69.84% # attempts to use FU when none available
system.cpu.iq.fu_full::SimdFloatReduceCmp            0      0.00%     69.84% # attempts to use FU when none available
system.cpu.iq.fu_full::SimdAes                      0      0.00%     69.84% # attempts to use FU when none available
system.cpu.iq.fu_full::SimdAesMix                   0      0.00%     69.84% # attempts to use FU when none available
system.cpu.iq.fu_full::SimdSha1Hash                 0      0.00%     69.84% # attempts to use FU when none available
system.cpu.iq.fu_full::SimdSha1Hash2                0      0.00%     69.84% # attempts to use FU when none available
system.cpu.iq.fu_full::SimdSha256Hash               0      0.00%     69.84% # attempts to use FU when none available
system.cpu.iq.fu_full::SimdSha256Hash2              0      0.00%     69.84% # attempts to use FU when none available
system.cpu.iq.fu_full::SimdShaSigma2                0      0.00%     69.84% # attempts to use FU when none available
system.cpu.iq.fu_full::SimdShaSigma3                0      0.00%     69.84% # attempts to use FU when none available
system.cpu.iq.fu_full::SimdPredAlu                  0      0.00%     69.84% # attempts to use FU when none available
system.cpu.iq.fu_full::MemRead                 999577      5.56%     75.41% # attempts to use FU when none available
system.cpu.iq.fu_full::MemWrite               2893787     16.11%     91.52% # attempts to use FU when none available
system.cpu.iq.fu_full::FloatMemRead            433498      2.41%     93.93% # attempts to use FU when none available
system.cpu.iq.fu_full::FloatMemWrite          1090339      6.07%    100.00% # attempts to use FU when none available
system.cpu.iq.fu_full::IprAccess                    0      0.00%    100.00% # attempts to use FU when none available
system.cpu.iq.fu_full::InstPrefetch                 0      0.00%    100.00% # attempts to use FU when none available
system.cpu.iq.int_alu_accesses              289785199                       # Number of integer alu accesses
system.cpu.iq.int_inst_queue_reads          668401041                       # Number of integer instruction queue reads
system.cpu.iq.int_inst_queue_wakeup_accesses    258002980                       # Number of integer instruction queue wakeup accesses
system.cpu.iq.int_inst_queue_writes         269824132                       # Number of integer instruction queue writes
system.cpu.iq.iqInstsAdded                  264185283                       # Number of instructions added to the IQ (excludes non-spec)
system.cpu.iq.iqInstsIssued                 262019830                       # Number of instructions issued
system.cpu.iq.iqNonSpecInstsAdded                1726                       # Number of non-speculative instructions added to the IQ
system.cpu.iq.iqSquashedInstsExamined         9697149                       # Number of squashed instructions iterated over during squash; mainly for profiling
system.cpu.iq.iqSquashedInstsIssued             87158                       # Number of squashed instructions issued
system.cpu.iq.iqSquashedNonSpecRemoved           1038                       # Number of squashed non-spec instructions that were removed
system.cpu.iq.iqSquashedOperandsExamined      9054611                       # Number of squashed operands that are examined and possibly removed from graph
system.cpu.iq.issued_per_cycle::samples     116613373                       # Number of insts issued each cycle
system.cpu.iq.issued_per_cycle::mean         2.246911                       # Number of insts issued each cycle
system.cpu.iq.issued_per_cycle::stdev        1.575213                       # Number of insts issued each cycle
system.cpu.iq.issued_per_cycle::underflows            0      0.00%      0.00% # Number of insts issued each cycle
system.cpu.iq.issued_per_cycle::0            18319244     15.71%     15.71% # Number of insts issued each cycle
system.cpu.iq.issued_per_cycle::1            26131973     22.41%     38.12% # Number of insts issued each cycle
system.cpu.iq.issued_per_cycle::2            21225540     18.20%     56.32% # Number of insts issued each cycle
system.cpu.iq.issued_per_cycle::3            20304359     17.41%     73.73% # Number of insts issued each cycle
system.cpu.iq.issued_per_cycle::4            22478713     19.28%     93.01% # Number of insts issued each cycle
system.cpu.iq.issued_per_cycle::5             6571509      5.64%     98.64% # Number of insts issued each cycle
system.cpu.iq.issued_per_cycle::6             1345618      1.15%     99.80% # Number of insts issued each cycle
system.cpu.iq.issued_per_cycle::7              213741      0.18%     99.98% # Number of insts issued each cycle
system.cpu.iq.issued_per_cycle::8               22676      0.02%    100.00% # Number of insts issued each cycle
system.cpu.iq.issued_per_cycle::overflows            0      0.00%    100.00% # Number of insts issued each cycle
system.cpu.iq.issued_per_cycle::min_value            0                       # Number of insts issued each cycle
system.cpu.iq.issued_per_cycle::max_value            8                       # Number of insts issued each cycle
system.cpu.iq.issued_per_cycle::total       116613373                       # Number of insts issued each cycle
system.cpu.iq.rate                           2.246108                       # Inst issue rate
system.cpu.iq.vec_alu_accesses                      0                       # Number of vector alu accesses
system.cpu.iq.vec_inst_queue_reads                  0                       # Number of vector instruction queue reads
system.cpu.iq.vec_inst_queue_wakeup_accesses            0                       # Number of vector instruction queue wakeup accesses
system.cpu.iq.vec_inst_queue_writes                 0                       # Number of vector instruction queue writes
system.cpu.memDep0.conflictingLoads            228527                       # Number of conflicting loads.
system.cpu.memDep0.conflictingStores            69365                       # Number of conflicting stores.
system.cpu.memDep0.insertedLoads             17952590                       # Number of loads inserted to the mem dependence unit.
system.cpu.memDep0.insertedStores             4345636                       # Number of stores inserted to the mem dependence unit.
system.cpu.memDep1.conflictingLoads             48182                       # Number of conflicting loads.
system.cpu.memDep1.conflictingStores           692134                       # Number of conflicting stores.
system.cpu.memDep1.insertedLoads             13195247                       # Number of loads inserted to the mem dependence unit.
system.cpu.memDep1.insertedStores            13195273                       # Number of stores inserted to the mem dependence unit.
system.cpu.misc_regfile_reads                87204875                       # number of misc regfile reads
system.cpu.numCycles                        116655041                       # number of cpu cycles simulated
system.cpu.numWorkItemsCompleted                    0                       # number of work items this cpu completed
system.cpu.numWorkItemsStarted                      0                       # number of work items this cpu started
system.cpu.timesIdled                            1631                       # Number of times that the entire CPU went into an idle state and unscheduled itself
system.cpu.workload0.numSyscalls                   20                       # Number of system calls
system.cpu.workload1.numSyscalls                   88                       # Number of system calls
system.membus.snoop_filter.hit_multi_requests            0                       # Number of requests hitting in the snoop filter with multiple (>1) holders of the requested data.
system.membus.snoop_filter.hit_multi_snoops            0                       # Number of snoops hitting in the snoop filter with multiple (>1) holders of the requested data.
system.membus.snoop_filter.hit_single_requests         6246                       # Number of requests hitting in the snoop filter with a single holder of the requested data.
system.membus.snoop_filter.hit_single_snoops            0                       # Number of snoops hitting in the snoop filter with a single holder of the requested data.
system.membus.snoop_filter.tot_requests         77818                       # Total number of requests made to the snoop filter.
system.membus.snoop_filter.tot_snoops               0                       # Total number of snoops made to the snoop filter.
system.tol2bus.snoop_filter.hit_multi_requests            1                       # Number of requests hitting in the snoop filter with multiple (>1) holders of the requested data.
system.tol2bus.snoop_filter.hit_multi_snoops            0                       # Number of snoops hitting in the snoop filter with multiple (>1) holders of the requested data.
system.tol2bus.snoop_filter.hit_single_requests       198891                       # Number of requests hitting in the snoop filter with a single holder of the requested data.
system.tol2bus.snoop_filter.hit_single_snoops          167                       # Number of snoops hitting in the snoop filter with a single holder of the requested data.
system.tol2bus.snoop_filter.tot_requests       399320                       # Total number of requests made to the snoop filter.
system.tol2bus.snoop_filter.tot_snoops            167                       # Total number of snoops made to the snoop filter.
sim_insts                                   151327108                       # Number of instructions simulated
sim_ops                                     254489818                       # Number of ops (including micro ops) simulated
host_inst_rate                                 116724                       # Simulator instruction rate (inst/s)
host_op_rate                                   196297                       # Simulator op (including micro ops) rate (op/s)
system.clk_domain.clock                          1000                       # Clock period in ticks
system.cpu.branchPred.lookups                22323022                       # Number of BP lookups
system.cpu.branchPred.condPredicted          17437943                       # Number of conditional branches predicted
system.cpu.branchPred.condIncorrect            858118                       # Number of conditional branches incorrect
system.cpu.branchPred.BTBLookups             16840462                       # Number of BTB lookups
system.cpu.branchPred.BTBHits                16796326                       # Number of BTB hits
system.cpu.branchPred.BTBHitPct             99.737917                       # BTB Hit Percentage
system.cpu.branchPred.RASUsed                 1073508                       # Number of times the RAS was used to get a target.
system.cpu.branchPred.RASIncorrect                245                       # Number of incorrect RAS predictions.
system.cpu.branchPred.indirectLookups           38864                       # Number of indirect predictor lookups.
system.cpu.branchPred.indirectHits              32442                       # Number of indirect target hits.
system.cpu.branchPred.indirectMisses             6422                       # Number of indirect misses.
system.cpu.branchPred.indirectMispredicted         3090                       # Number of mispredicted indirect branches.
system.cpu.commit.commitSquashedInsts         7814913                       # The number of squashed insts skipped by commit
system.cpu.commit.commitNonSpecStalls             688                       # The number of times commit has been forced to stall to communicate backwards
system.cpu.commit.branchMispredicts            836278                       # The number of times a branch was mispredicted
system.cpu.commit.numCommittedDist::samples    116612722                       # Number of insts commited each cycle
system.cpu.commit.numCommittedDist::mean     2.182350                       # Number of insts commited each cycle
system.cpu.commit.numCommittedDist::stdev     2.132524                       # Number of insts commited each cycle
system.cpu.commit.numCommittedDist::underflows            0      0.00%      0.00% # Number of insts commited each cycle
system.cpu.commit.numCommittedDist::0        10672330      9.15%      9.15% # Number of insts commited each cycle
system.cpu.commit.numCommittedDist::1        59635086     51.14%     60.29% # Number of insts commited each cycle
system.cpu.commit.numCommittedDist::2        13153011     11.28%     71.57% # Number of insts commited each cycle
system.cpu.commit.numCommittedDist::3         8966195      7.69%     79.26% # Number of insts commited each cycle
system.cpu.commit.numCommittedDist::4         7220934      6.19%     85.45% # Number of insts commited each cycle
system.cpu.commit.numCommittedDist::5         5023134      4.31%     89.76% # Number of insts commited each cycle
system.cpu.commit.numCommittedDist::6         2818900      2.42%     92.18% # Number of insts commited each cycle
system.cpu.commit.numCommittedDist::7         2247737      1.93%     94.10% # Number of insts commited each cycle
system.cpu.commit.numCommittedDist::8         6875395      5.90%    100.00% # Number of insts commited each cycle
system.cpu.commit.numCommittedDist::overflows            0      0.00%    100.00% # Number of insts commited each cycle
system.cpu.commit.numCommittedDist::min_value            0                       # Number of insts commited each cycle
system.cpu.commit.numCommittedDist::max_value            8                       # Number of insts commited each cycle
system.cpu.commit.numCommittedDist::total    116612722                       # Number of insts commited each cycle
system.cpu.commit.instsCommitted::0         100000000                       # Number of instructions committed
system.cpu.commit.instsCommitted::1          51327108                       # Number of instructions committed
system.cpu.commit.instsCommitted::total     151327108                       # Number of instructions committed
system.cpu.commit.opsCommitted::0           146474675                       # Number of ops (including micro ops) committed
system.cpu.commit.opsCommitted::1           108015143                       # Number of ops (including micro ops) committed
system.cpu.commit.opsCommitted::total       254489818                       # Number of ops (including micro ops) committed
system.cpu.commit.memRefs::0                 22264347                       # Number of memory references committed
system.cpu.commit.memRefs::1                 24169383                       # Number of memory references committed
system.cpu.commit.memRefs::total             46433730                       # Number of memory references committed
system.cpu.commit.loads::0                   17946357                       # Number of loads committed
system.cpu.commit.loads::1                   12160399                       # Number of loads committed
system.cpu.commit.loads::total               30106756                       # Number of loads committed
system.cpu.commit.amos::0                           0                       # Number of atomic instructions committed
system.cpu.commit.amos::1                           0                       # Number of atomic instructions committed
system.cpu.commit.amos::total                       0                       # Number of atomic instructions committed
system.cpu.commit.membars::0                       18                       # Number of memory barriers committed
system.cpu.commit.membars::1                      412                       # Number of memory barriers committed
system.cpu.commit.membars::total                  430                       # Number of memory barriers committed
system.cpu.commit.branches::0                 7160498                       # Number of branches committed
system.cpu.commit.branches::1                14435753                       # Number of branches committed
system.cpu.commit.branches::total            21596251                       # Number of branches committed
system.cpu.commit.vector::0                         0                       # Number of committed Vector instructions.
system.cpu.commit.vector::1                         0                       # Number of committed Vector instructions.
system.cpu.commit.vector::total                     0                       # Number of committed Vector instructions.
system.cpu.commit.floating::0                  527329                       # Number of committed floating point instructions.
system.cpu.commit.floating::1                  627821                       # Number of committed floating point instructions.
system.cpu.commit.floating::total             1155150                       # Number of committed floating point instructions.
system.cpu.commit.integer::0                146423808                       # Number of committed integer instructions.
system.cpu.commit.integer::1                105936198                       # Number of committed integer instructions.
system.cpu.commit.integer::total            252360006                       # Number of committed integer instructions.
system.cpu.commit.functionCalls::0              90318                       # Number of function calls committed.
system.cpu.commit.functionCalls::1             954309                       # Number of function calls committed.
system.cpu.commit.functionCalls::total        1044627                       # Number of function calls committed.
system.cpu.commit.committedInstType_0::No_OpClass        49637      0.03%      0.03% # Class of committed instruction
system.cpu.commit.committedInstType_0::IntAlu    124159328     84.77%     84.80% # Class of committed instruction
system.cpu.commit.committedInstType_0::IntMult           15      0.00%     84.80% # Class of committed instruction
system.cpu.commit.committedInstType_0::IntDiv           42      0.00%     84.80% # Class of committed instruction
system.cpu.commit.committedInstType_0::FloatAdd          167      0.00%     84.80% # Class of committed instruction
system.cpu.commit.committedInstType_0::FloatCmp            0      0.00%     84.80% # Class of committed instruction
system.cpu.commit.committedInstType_0::FloatCvt            0      0.00%     84.80% # Class of committed instruction
system.cpu.commit.committedInstType_0::FloatMult            0      0.00%     84.80% # Class of committed instruction
system.cpu.commit.committedInstType_0::FloatMultAcc            0      0.00%     84.80% # Class of committed instruction
system.cpu.commit.committedInstType_0::FloatDiv            0      0.00%     84.80% # Class of committed instruction
system.cpu.commit.committedInstType_0::FloatMisc            0      0.00%     84.80% # Class of committed instruction
system.cpu.commit.committedInstType_0::FloatSqrt            0      0.00%     84.80% # Class of committed instruction
system.cpu.commit.committedInstType_0::SimdAdd           34      0.00%     84.80% # Class of committed instruction
system.cpu.commit.committedInstType_0::SimdAddAcc            0      0.00%     84.80% # Class of committed instruction
system.cpu.commit.committedInstType_0::SimdAlu          341      0.00%     84.80% # Class of committed instruction
system.cpu.commit.committedInstType_0::SimdCmp           12      0.00%     84.80% # Class of committed instruction
system.cpu.commit.committedInstType_0::SimdCvt          226      0.00%     84.80% # Class of committed instruction
system.cpu.commit.committedInstType_0::SimdMisc          474      0.00%     84.80% # Class of committed instruction
system.cpu.commit.committedInstType_0::SimdMult            0      0.00%     84.80% # Class of committed instruction
system.cpu.commit.committedInstType_0::SimdMultAcc            0      0.00%     84.80% # Class of committed instruction
system.cpu.commit.committedInstType_0::SimdShift           46      0.00%     84.80% # Class of committed instruction
system.cpu.commit.committedInstType_0::SimdShiftAcc            0      0.00%     84.80% # Class of committed instruction
system.cpu.commit.committedInstType_0::SimdDiv            0      0.00%     84.80% # Class of committed instruction
system.cpu.commit.committedInstType_0::SimdSqrt            0      0.00%     84.80% # Class of committed instruction
system.cpu.commit.committedInstType_0::SimdFloatAdd            1      0.00%     84.80% # Class of committed instruction
system.cpu.commit.committedInstType_0::SimdFloatAlu            0      0.00%     84.80% # Class of committed instruction
system.cpu.commit.committedInstType_0::SimdFloatCmp            0      0.00%     84.80% # Class of committed instruction
system.cpu.commit.committedInstType_0::SimdFloatCvt            4      0.00%     84.80% # Class of committed instruction
system.cpu.commit.committedInstType_0::SimdFloatDiv            1      0.00%     84.80% # Class of committed instruction
system.cpu.commit.committedInstType_0::SimdFloatMisc            0      0.00%     84.80% # Class of committed instruction
system.cpu.commit.committedInstType_0::SimdFloatMult            0      0.00%     84.80% # Class of committed instruction
system.cpu.commit.committedInstType_0::SimdFloatMultAcc            0      0.00%     84.80% # Class of committed instruction
system.cpu.commit.committedInstType_0::SimdFloatSqrt            0      0.00%     84.80% # Class of committed instruction
system.cpu.commit.committedInstType_0::SimdReduceAdd            0      0.00%     84.80% # Class of committed instruction
system.cpu.commit.committedInstType_0::SimdReduceAlu            0      0.00%     84.80% # Class of committed instruction
system.cpu.commit.committedInstType_0::SimdReduceCmp            0      0.00%     84.80% # Class of committed instruction
system.cpu.commit.committedInstType_0::SimdFloatReduceAdd            0      0.00%     84.80% # Class of committed instruction
system.cpu.commit.committedInstType_0::SimdFloatReduceCmp            0      0.00%     84.80% # Class of committed instruction
system.cpu.commit.committedInstType_0::SimdAes            0      0.00%     84.80% # Class of committed instruction
system.cpu.commit.committedInstType_0::SimdAesMix            0      0.00%     84.80% # Class of committed instruction
system.cpu.commit.committedInstType_0::SimdSha1Hash            0      0.00%     84.80% # Class of committed instruction
system.cpu.commit.committedInstType_0::SimdSha1Hash2            0      0.00%     84.80% # Class of committed instruction
system.cpu.commit.committedInstType_0::SimdSha256Hash            0      0.00%     84.80% # Class of committed instruction
system.cpu.commit.committedInstType_0::SimdSha256Hash2            0      0.00%     84.80% # Class of committed instruction
system.cpu.commit.committedInstType_0::SimdShaSigma2            0      0.00%     84.80% # Class of committed instruction
system.cpu.commit.committedInstType_0::SimdShaSigma3            0      0.00%     84.80% # Class of committed instruction
system.cpu.commit.committedInstType_0::SimdPredAlu            0      0.00%     84.80% # Class of committed instruction
system.cpu.commit.committedInstType_0::MemRead     17814647     12.16%     96.96% # Class of committed instruction
system.cpu.commit.committedInstType_0::MemWrite      3923861      2.68%     99.64% # Class of committed instruction
system.cpu.commit.committedInstType_0::FloatMemRead       131710      0.09%     99.73% # Class of committed instruction
system.cpu.commit.committedInstType_0::FloatMemWrite       394129      0.27%    100.00% # Class of committed instruction
system.cpu.commit.committedInstType_0::IprAccess            0      0.00%    100.00% # Class of committed instruction
system.cpu.commit.committedInstType_0::InstPrefetch            0      0.00%    100.00% # Class of committed instruction
system.cpu.commit.committedInstType_0::total    146474675                       # Class of committed instruction
system.cpu.commit.committedInstType_1::No_OpClass      2067585      1.91%      1.91% # Class of committed instruction
system.cpu.commit.committedInstType_1::IntAlu     80929793     74.92%     76.84% # Class of committed instruction
system.cpu.commit.committedInstType_1::IntMult       832939      0.77%     77.61% # Class of committed instruction
system.cpu.commit.committedInstType_1::IntDiv          844      0.00%     77.61% # Class of committed instruction
system.cpu.commit.committedInstType_1::FloatAdd         3098      0.00%     77.61% # Class of committed instruction
system.cpu.commit.committedInstType_1::FloatCmp            0      0.00%     77.61% # Class of committed instruction
system.cpu.commit.committedInstType_1::FloatCvt            0      0.00%     77.61% # Class of committed instruction
system.cpu.commit.committedInstType_1::FloatMult            0      0.00%     77.61% # Class of committed instruction
system.cpu.commit.committedInstType_1::FloatMultAcc            0      0.00%     77.61% # Class of committed instruction
system.cpu.commit.committedInstType_1::FloatDiv            0      0.00%     77.61% # Class of committed instruction
system.cpu.commit.committedInstType_1::FloatMisc            0      0.00%     77.61% # Class of committed instruction
system.cpu.commit.committedInstType_1::FloatSqrt            0      0.00%     77.61% # Class of committed instruction
system.cpu.commit.committedInstType_1::SimdAdd          704      0.00%     77.61% # Class of committed instruction
system.cpu.commit.committedInstType_1::SimdAddAcc            0      0.00%     77.61% # Class of committed instruction
system.cpu.commit.committedInstType_1::SimdAlu         1168      0.00%     77.62% # Class of committed instruction
system.cpu.commit.committedInstType_1::SimdCmp            0      0.00%     77.62% # Class of committed instruction
system.cpu.commit.committedInstType_1::SimdCvt          226      0.00%     77.62% # Class of committed instruction
system.cpu.commit.committedInstType_1::SimdMisc         6509      0.01%     77.62% # Class of committed instruction
system.cpu.commit.committedInstType_1::SimdMult            0      0.00%     77.62% # Class of committed instruction
system.cpu.commit.committedInstType_1::SimdMultAcc            0      0.00%     77.62% # Class of committed instruction
system.cpu.commit.committedInstType_1::SimdShift            7      0.00%     77.62% # Class of committed instruction
system.cpu.commit.committedInstType_1::SimdShiftAcc            0      0.00%     77.62% # Class of committed instruction
system.cpu.commit.committedInstType_1::SimdDiv            0      0.00%     77.62% # Class of committed instruction
system.cpu.commit.committedInstType_1::SimdSqrt            0      0.00%     77.62% # Class of committed instruction
system.cpu.commit.committedInstType_1::SimdFloatAdd           11      0.00%     77.62% # Class of committed instruction
system.cpu.commit.committedInstType_1::SimdFloatAlu            0      0.00%     77.62% # Class of committed instruction
system.cpu.commit.committedInstType_1::SimdFloatCmp            0      0.00%     77.62% # Class of committed instruction
system.cpu.commit.committedInstType_1::SimdFloatCvt         2874      0.00%     77.62% # Class of committed instruction
system.cpu.commit.committedInstType_1::SimdFloatDiv            1      0.00%     77.62% # Class of committed instruction
system.cpu.commit.committedInstType_1::SimdFloatMisc            0      0.00%     77.62% # Class of committed instruction
system.cpu.commit.committedInstType_1::SimdFloatMult            1      0.00%     77.62% # Class of committed instruction
system.cpu.commit.committedInstType_1::SimdFloatMultAcc            0      0.00%     77.62% # Class of committed instruction
system.cpu.commit.committedInstType_1::SimdFloatSqrt            0      0.00%     77.62% # Class of committed instruction
system.cpu.commit.committedInstType_1::SimdReduceAdd            0      0.00%     77.62% # Class of committed instruction
system.cpu.commit.committedInstType_1::SimdReduceAlu            0      0.00%     77.62% # Class of committed instruction
system.cpu.commit.committedInstType_1::SimdReduceCmp            0      0.00%     77.62% # Class of committed instruction
system.cpu.commit.committedInstType_1::SimdFloatReduceAdd            0      0.00%     77.62% # Class of committed instruction
system.cpu.commit.committedInstType_1::SimdFloatReduceCmp            0      0.00%     77.62% # Class of committed instruction
system.cpu.commit.committedInstType_1::SimdAes            0      0.00%     77.62% # Class of committed instruction
system.cpu.commit.committedInstType_1::SimdAesMix            0      0.00%     77.62% # Class of committed instruction
system.cpu.commit.committedInstType_1::SimdSha1Hash            0      0.00%     77.62% # Class of committed instruction
system.cpu.commit.committedInstType_1::SimdSha1Hash2            0      0.00%     77.62% # Class of committed instruction
system.cpu.commit.committedInstType_1::SimdSha256Hash            0      0.00%     77.62% # Class of committed instruction
system.cpu.commit.committedInstType_1::SimdSha256Hash2            0      0.00%     77.62% # Class of committed instruction
system.cpu.commit.committedInstType_1::SimdShaSigma2            0      0.00%     77.62% # Class of committed instruction
system.cpu.commit.committedInstType_1::SimdShaSigma3            0      0.00%     77.62% # Class of committed instruction
system.cpu.commit.committedInstType_1::SimdPredAlu            0      0.00%     77.62% # Class of committed instruction
system.cpu.commit.committedInstType_1::MemRead     11855928     10.98%     88.60% # Class of committed instruction
system.cpu.commit.committedInstType_1::MemWrite     11701768     10.83%     99.43% # Class of committed instruction
system.cpu.commit.committedInstType_1::FloatMemRead       304471      0.28%     99.72% # Class of committed instruction
system.cpu.commit.committedInstType_1::FloatMemWrite       307216      0.28%    100.00% # Class of committed instruction
system.cpu.commit.committedInstType_1::IprAccess            0      0.00%    100.00% # Class of committed instruction
system.cpu.commit.committedInstType_1::InstPrefetch            0      0.00%    100.00% # Class of committed instruction
system.cpu.commit.committedInstType_1::total    108015143                       # Class of committed instruction
system.cpu.commit.committedInstType::total    254489818      0.00%      0.00% # Class of committed instruction
system.cpu.commit.commitEligibleSamples       6875395                       # number cycles where commit BW limit reached
system.cpu.dcache.demand_hits::.cpu.data     44984868                       # number of demand (read+write) hits
system.cpu.dcache.demand_hits::total         44984868                       # number of demand (read+write) hits
system.cpu.dcache.overall_hits::.cpu.data     45166480                       # number of overall hits
system.cpu.dcache.overall_hits::total        45166480                       # number of overall hits
system.cpu.dcache.demand_misses::.cpu.data       180832                       # number of demand (read+write) misses
system.cpu.dcache.demand_misses::total         180832                       # number of demand (read+write) misses
system.cpu.dcache.overall_misses::.cpu.data       186391                       # number of overall misses
system.cpu.dcache.overall_misses::total        186391                       # number of overall misses
system.cpu.dcache.demand_miss_latency::.cpu.data   2568208499                       # number of demand (read+write) miss cycles
system.cpu.dcache.demand_miss_latency::total   2568208499                       # number of demand (read+write) miss cycles
system.cpu.dcache.overall_miss_latency::.cpu.data   2568208499                       # number of overall miss cycles
system.cpu.dcache.overall_miss_latency::total   2568208499                       # number of overall miss cycles
system.cpu.dcache.demand_accesses::.cpu.data     45165700                       # number of demand (read+write) accesses
system.cpu.dcache.demand_accesses::total     45165700                       # number of demand (read+write) accesses
system.cpu.dcache.overall_accesses::.cpu.data     45352871                       # number of overall (read+write) accesses
system.cpu.dcache.overall_accesses::total     45352871                       # number of overall (read+write) accesses
system.cpu.dcache.demand_miss_rate::.cpu.data     0.004004                       # miss rate for demand accesses
system.cpu.dcache.demand_miss_rate::total     0.004004                       # miss rate for demand accesses
system.cpu.dcache.overall_miss_rate::.cpu.data     0.004110                       # miss rate for overall accesses
system.cpu.dcache.overall_miss_rate::total     0.004110                       # miss rate for overall accesses
system.cpu.dcache.demand_avg_miss_latency::.cpu.data 14202.179365                       # average overall miss latency
system.cpu.dcache.demand_avg_miss_latency::total 14202.179365                       # average overall miss latency
system.cpu.dcache.overall_avg_miss_latency::.cpu.data 13778.607867                       # average overall miss latency
system.cpu.dcache.overall_avg_miss_latency::total 13778.607867                       # average overall miss latency
system.cpu.dcache.blocked_cycles::no_mshrs          193                       # number of cycles access was blocked
system.cpu.dcache.blocked_cycles::no_targets         1217                       # number of cycles access was blocked
system.cpu.dcache.blocked::no_mshrs                 8                       # number of cycles access was blocked
system.cpu.dcache.blocked::no_targets              40                       # number of cycles access was blocked
system.cpu.dcache.avg_blocked_cycles::no_mshrs    24.125000                       # average number of cycles each access was blocked
system.cpu.dcache.avg_blocked_cycles::no_targets    30.425000                       # average number of cycles each access was blocked
system.cpu.dcache.writebacks::.writebacks       157988                       # number of writebacks
system.cpu.dcache.writebacks::total            157988                       # number of writebacks
system.cpu.dcache.demand_mshr_hits::.cpu.data        27276                       # number of demand (read+write) MSHR hits
system.cpu.dcache.demand_mshr_hits::total        27276                       # number of demand (read+write) MSHR hits
system.cpu.dcache.overall_mshr_hits::.cpu.data        27276                       # number of overall MSHR hits
system.cpu.dcache.overall_mshr_hits::total        27276                       # number of overall MSHR hits
system.cpu.dcache.demand_mshr_misses::.cpu.data       153556                       # number of demand (read+write) MSHR misses
system.cpu.dcache.demand_mshr_misses::total       153556                       # number of demand (read+write) MSHR misses
system.cpu.dcache.overall_mshr_misses::.cpu.data       159014                       # number of overall MSHR misses
system.cpu.dcache.overall_mshr_misses::total       159014                       # number of overall MSHR misses
system.cpu.dcache.demand_mshr_miss_latency::.cpu.data   2141947500                       # number of demand (read+write) MSHR miss cycles
system.cpu.dcache.demand_mshr_miss_latency::total   2141947500                       # number of demand (read+write) MSHR miss cycles
system.cpu.dcache.overall_mshr_miss_latency::.cpu.data   2218659000                       # number of overall MSHR miss cycles
system.cpu.dcache.overall_mshr_miss_latency::total   2218659000                       # number of overall MSHR miss cycles
system.cpu.dcache.demand_mshr_miss_rate::.cpu.data     0.003400                       # mshr miss rate for demand accesses
system.cpu.dcache.demand_mshr_miss_rate::total     0.003400                       # mshr miss rate for demand accesses
system.cpu.dcache.overall_mshr_miss_rate::.cpu.data     0.003506                       # mshr miss rate for overall accesses
system.cpu.dcache.overall_mshr_miss_rate::total     0.003506                       # mshr miss rate for overall accesses
system.cpu.dcache.demand_avg_mshr_miss_latency::.cpu.data 13948.966501                       # average overall mshr miss latency
system.cpu.dcache.demand_avg_mshr_miss_latency::total 13948.966501                       # average overall mshr miss latency
system.cpu.dcache.overall_avg_mshr_miss_latency::.cpu.data 13952.601658                       # average overall mshr miss latency
system.cpu.dcache.overall_avg_mshr_miss_latency::total 13952.601658                       # average overall mshr miss latency
system.cpu.dcache.replacements                 157988                       # number of replacements
system.cpu.dcache.ReadReq_hits::.cpu.data     28751077                       # number of ReadReq hits
system.cpu.dcache.ReadReq_hits::total        28751077                       # number of ReadReq hits
system.cpu.dcache.ReadReq_misses::.cpu.data        87496                       # number of ReadReq misses
system.cpu.dcache.ReadReq_misses::total         87496                       # number of ReadReq misses
system.cpu.dcache.ReadReq_miss_latency::.cpu.data    870108500                       # number of ReadReq miss cycles
system.cpu.dcache.ReadReq_miss_latency::total    870108500                       # number of ReadReq miss cycles
system.cpu.dcache.ReadReq_accesses::.cpu.data     28838573                       # number of ReadReq accesses(hits+misses)
system.cpu.dcache.ReadReq_accesses::total     28838573                       # number of ReadReq accesses(hits+misses)
system.cpu.dcache.ReadReq_miss_rate::.cpu.data     0.003034                       # miss rate for ReadReq accesses
system.cpu.dcache.ReadReq_miss_rate::total     0.003034                       # miss rate for ReadReq accesses
system.cpu.dcache.ReadReq_avg_miss_latency::.cpu.data  9944.551751                       # average ReadReq miss latency
system.cpu.dcache.ReadReq_avg_miss_latency::total  9944.551751                       # average ReadReq miss latency
system.cpu.dcache.ReadReq_mshr_hits::.cpu.data        27235                       # number of ReadReq MSHR hits
system.cpu.dcache.ReadReq_mshr_hits::total        27235                       # number of ReadReq MSHR hits
system.cpu.dcache.ReadReq_mshr_misses::.cpu.data        60261                       # number of ReadReq MSHR misses
system.cpu.dcache.ReadReq_mshr_misses::total        60261                       # number of ReadReq MSHR misses
system.cpu.dcache.ReadReq_mshr_miss_latency::.cpu.data    537745500                       # number of ReadReq MSHR miss cycles
system.cpu.dcache.ReadReq_mshr_miss_latency::total    537745500                       # number of ReadReq MSHR miss cycles
system.cpu.dcache.ReadReq_mshr_miss_rate::.cpu.data     0.002090                       # mshr miss rate for ReadReq accesses
system.cpu.dcache.ReadReq_mshr_miss_rate::total     0.002090                       # mshr miss rate for ReadReq accesses
system.cpu.dcache.ReadReq_avg_mshr_miss_latency::.cpu.data  8923.607308                       # average ReadReq mshr miss latency
system.cpu.dcache.ReadReq_avg_mshr_miss_latency::total  8923.607308                       # average ReadReq mshr miss latency
system.cpu.dcache.WriteReq_hits::.cpu.data     16233791                       # number of WriteReq hits
system.cpu.dcache.WriteReq_hits::total       16233791                       # number of WriteReq hits
system.cpu.dcache.WriteReq_misses::.cpu.data        93336                       # number of WriteReq misses
system.cpu.dcache.WriteReq_misses::total        93336                       # number of WriteReq misses
system.cpu.dcache.WriteReq_miss_latency::.cpu.data   1698099999                       # number of WriteReq miss cycles
system.cpu.dcache.WriteReq_miss_latency::total   1698099999                       # number of WriteReq miss cycles
system.cpu.dcache.WriteReq_accesses::.cpu.data     16327127                       # number of WriteReq accesses(hits+misses)
system.cpu.dcache.WriteReq_accesses::total     16327127                       # number of WriteReq accesses(hits+misses)
system.cpu.dcache.WriteReq_miss_rate::.cpu.data     0.005717                       # miss rate for WriteReq accesses
system.cpu.dcache.WriteReq_miss_rate::total     0.005717                       # miss rate for WriteReq accesses
system.cpu.dcache.WriteReq_avg_miss_latency::.cpu.data 18193.408749                       # average WriteReq miss latency
system.cpu.dcache.WriteReq_avg_miss_latency::total 18193.408749                       # average WriteReq miss latency
system.cpu.dcache.WriteReq_mshr_hits::.cpu.data           41                       # number of WriteReq MSHR hits
system.cpu.dcache.WriteReq_mshr_hits::total           41                       # number of WriteReq MSHR hits
system.cpu.dcache.WriteReq_mshr_misses::.cpu.data        93295                       # number of WriteReq MSHR misses
system.cpu.dcache.WriteReq_mshr_misses::total        93295                       # number of WriteReq MSHR misses
system.cpu.dcache.WriteReq_mshr_miss_latency::.cpu.data   1604202000                       # number of WriteReq MSHR miss cycles
system.cpu.dcache.WriteReq_mshr_miss_latency::total   1604202000                       # number of WriteReq MSHR miss cycles
system.cpu.dcache.WriteReq_mshr_miss_rate::.cpu.data     0.005714                       # mshr miss rate for WriteReq accesses
system.cpu.dcache.WriteReq_mshr_miss_rate::total     0.005714                       # mshr miss rate for WriteReq accesses
system.cpu.dcache.WriteReq_avg_mshr_miss_latency::.cpu.data 17194.940779                       # average WriteReq mshr miss latency
system.cpu.dcache.WriteReq_avg_mshr_miss_latency::total 17194.940779                       # average WriteReq mshr miss latency
system.cpu.dcache.SoftPFReq_hits::.cpu.data       181612                       # number of SoftPFReq hits
system.cpu.dcache.SoftPFReq_hits::total        181612                       # number of SoftPFReq hits
system.cpu.dcache.SoftPFReq_misses::.cpu.data         5559                       # number of SoftPFReq misses
system.cpu.dcache.SoftPFReq_misses::total         5559                       # number of SoftPFReq misses
system.cpu.dcache.SoftPFReq_accesses::.cpu.data       187171                       # number of SoftPFReq accesses(hits+misses)
system.cpu.dcache.SoftPFReq_accesses::total       187171                       # number of SoftPFReq accesses(hits+misses)
system.cpu.dcache.SoftPFReq_miss_rate::.cpu.data     0.029700                       # miss rate for SoftPFReq accesses
system.cpu.dcache.SoftPFReq_miss_rate::total     0.029700                       # miss rate for SoftPFReq accesses
system.cpu.dcache.SoftPFReq_mshr_misses::.cpu.data         5458                       # number of SoftPFReq MSHR misses
system.cpu.dcache.SoftPFReq_mshr_misses::total         5458                       # number of SoftPFReq MSHR misses
system.cpu.dcache.SoftPFReq_mshr_miss_latency::.cpu.data     76711500                       # number of SoftPFReq MSHR miss cycles
system.cpu.dcache.SoftPFReq_mshr_miss_latency::total     76711500                       # number of SoftPFReq MSHR miss cycles
system.cpu.dcache.SoftPFReq_mshr_miss_rate::.cpu.data     0.029161                       # mshr miss rate for SoftPFReq accesses
system.cpu.dcache.SoftPFReq_mshr_miss_rate::total     0.029161                       # mshr miss rate for SoftPFReq accesses
system.cpu.dcache.SoftPFReq_avg_mshr_miss_latency::.cpu.data 14054.873580                       # average SoftPFReq mshr miss latency
system.cpu.dcache.SoftPFReq_avg_mshr_miss_latency::total 14054.873580                       # average SoftPFReq mshr miss latency
system.cpu.dcache.power_state.pwrStateResidencyTicks::UNDEFINED  58327519500                       # Cumulative time (in ticks) in various power states
system.cpu.dcache.tags.tagsinuse          1022.828333                       # Cycle average of tags in use
system.cpu.dcache.tags.total_refs            45325492                       # Total number of references to valid blocks.
system.cpu.dcache.tags.sampled_refs            159012                       # Sample count of references to valid blocks.
system.cpu.dcache.tags.avg_refs            285.044475                       # Average number of references to valid blocks.
system.cpu.dcache.tags.warmup_cycle            190500                       # Cycle when the warmup percentage was hit.
system.cpu.dcache.tags.occ_blocks::.cpu.data  1022.828333                       # Average occupied blocks per requestor
system.cpu.dcache.tags.occ_percent::.cpu.data     0.998856                       # Average percentage of cache occupancy
system.cpu.dcache.tags.occ_percent::total     0.998856                       # Average percentage of cache occupancy
system.cpu.dcache.tags.occ_task_id_blocks::1024         1024                       # Occupied blocks per task id
system.cpu.dcache.tags.age_task_id_blocks_1024::0          131                       # Occupied blocks per task id
system.cpu.dcache.tags.age_task_id_blocks_1024::1          890                       # Occupied blocks per task id
system.cpu.dcache.tags.age_task_id_blocks_1024::4            3                       # Occupied blocks per task id
system.cpu.dcache.tags.occ_task_id_percent::1024            1                       # Percentage of cache occupancy per task id
system.cpu.dcache.tags.tag_accesses          90864754                       # Number of tag accesses
system.cpu.dcache.tags.data_accesses         90864754                       # Number of data accesses
system.cpu.dcache.tags.power_state.pwrStateResidencyTicks::UNDEFINED  58327519500                       # Cumulative time (in ticks) in various power states
system.cpu.decode.idleCycles                105258354                       # Number of cycles decode is idle
system.cpu.decode.blockedCycles              50798475                       # Number of cycles decode is blocked
system.cpu.decode.runCycles                  67888283                       # Number of cycles decode is running
system.cpu.decode.unblockCycles               8416549                       # Number of cycles decode is unblocking
system.cpu.decode.squashCycles                 865085                       # Number of cycles decode is squashing
system.cpu.decode.branchResolved             16569082                       # Number of times decode resolved a  branch
system.cpu.decode.branchMispred                 22171                       # Number of times decode detected a branch misprediction
system.cpu.decode.decodedInsts              267072255                       # Number of instructions handled by decode
system.cpu.decode.squashedInsts               2419520                       # Number of squashed instructions handled by decode
system.cpu.dtb.rdAccesses                    31136864                       # TLB accesses on read requests
system.cpu.dtb.wrAccesses                    17395270                       # TLB accesses on write requests
system.cpu.dtb.rdMisses                          7140                       # TLB misses on read requests
system.cpu.dtb.wrMisses                         61321                       # TLB misses on write requests
system.cpu.dtb.walker.power_state.pwrStateResidencyTicks::UNDEFINED  58327519500                       # Cumulative time (in ticks) in various power states
system.cpu.dtb_walker_cache.blocked_cycles::no_mshrs            0                       # number of cycles access was blocked
system.cpu.dtb_walker_cache.blocked_cycles::no_targets            0                       # number of cycles access was blocked
system.cpu.dtb_walker_cache.blocked::no_mshrs            0                       # number of cycles access was blocked
system.cpu.dtb_walker_cache.blocked::no_targets            0                       # number of cycles access was blocked
system.cpu.dtb_walker_cache.avg_blocked_cycles::no_mshrs          nan                       # average number of cycles each access was blocked
system.cpu.dtb_walker_cache.avg_blocked_cycles::no_targets          nan                       # average number of cycles each access was blocked
system.cpu.dtb_walker_cache.replacements            0                       # number of replacements
system.cpu.dtb_walker_cache.power_state.pwrStateResidencyTicks::UNDEFINED  58327519500                       # Cumulative time (in ticks) in various power states
system.cpu.dtb_walker_cache.tags.tagsinuse            0                       # Cycle average of tags in use
system.cpu.dtb_walker_cache.tags.total_refs            0                       # Total number of references to valid blocks.
system.cpu.dtb_walker_cache.tags.sampled_refs            0                       # Sample count of references to valid blocks.
system.cpu.dtb_walker_cache.tags.avg_refs          nan                       # Average number of references to valid blocks.
system.cpu.dtb_walker_cache.tags.warmup_cycle            0                       # Cycle when the warmup percentage was hit.
system.cpu.dtb_walker_cache.tags.tag_accesses            0                       # Number of tag accesses
system.cpu.dtb_walker_cache.tags.data_accesses            0                       # Number of data accesses
system.cpu.dtb_walker_cache.tags.power_state.pwrStateResidencyTicks::UNDEFINED  58327519500                       # Cumulative time (in ticks) in various power states
system.cpu.fetch.icacheStallCycles             741586                       # Number of cycles fetch is stalled on an Icache miss
system.cpu.fetch.insts                      162312424                       # Number of instructions fetch has processed
system.cpu.fetch.branches                    22323022                       # Number of branches that fetch encountered
system.cpu.fetch.predictedBranches           17902276                       # Number of branches that fetch has predicted taken
system.cpu.fetch.cycles                     115693638                       # Number of cycles fetch has run and was not squashing or blocked
system.cpu.fetch.squashCycles                  886966                       # Number of cycles fetch has spent squashing
system.cpu.fetch.tlbCycles                       1336                       # Number of cycles fetch has spent waiting for tlb
system.cpu.fetch.miscStallCycles                16177                       # Number of cycles fetch has spent waiting on interrupts,or bad addresses, or out of MSHRs
system.cpu.fetch.cacheLines                  50134195                       # Number of cache lines fetched
system.cpu.fetch.icacheSquashes                 10060                       # Number of outstanding Icache misses that were squashed
system.cpu.fetch.tlbSquashes                     1034                       # Number of outstanding ITLB misses that were squashed
system.cpu.fetch.nisnDist::samples          116613373                       # Number of instructions fetched each cycle (Total)
system.cpu.fetch.nisnDist::mean              2.323168                       # Number of instructions fetched each cycle (Total)
system.cpu.fetch.nisnDist::stdev             2.114003                       # Number of instructions fetched each cycle (Total)
system.cpu.fetch.nisnDist::underflows               0      0.00%      0.00% # Number of instructions fetched each cycle (Total)
system.cpu.fetch.nisnDist::0                 35923667     30.81%     30.81% # Number of instructions fetched each cycle (Total)
system.cpu.fetch.nisnDist::1                 22483737     19.28%     50.09% # Number of instructions fetched each cycle (Total)
system.cpu.fetch.nisnDist::2                  7244096      6.21%     56.30% # Number of instructions fetched each cycle (Total)
system.cpu.fetch.nisnDist::3                  6416945      5.50%     61.80% # Number of instructions fetched each cycle (Total)
system.cpu.fetch.nisnDist::4                  8034916      6.89%     68.69% # Number of instructions fetched each cycle (Total)
system.cpu.fetch.nisnDist::5                 36510012     31.31%    100.00% # Number of instructions fetched each cycle (Total)
system.cpu.fetch.nisnDist::overflows                0      0.00%    100.00% # Number of instructions fetched each cycle (Total)
system.cpu.fetch.nisnDist::min_value                0                       # Number of instructions fetched each cycle (Total)
system.cpu.fetch.nisnDist::max_value                5                       # Number of instructions fetched each cycle (Total)
system.cpu.fetch.nisnDist::total            116613373                       # Number of instructions fetched each cycle (Total)
system.cpu.fetch.branchRate                  0.191359                       # Number of branch fetches per cycle
system.cpu.fetch.rate                        1.391388                       # Number of inst fetches per cycle
system.cpu.icache.demand_hits::.cpu.inst     50090213                       # number of demand (read+write) hits
system.cpu.icache.demand_hits::total         50090213                       # number of demand (read+write) hits
system.cpu.icache.overall_hits::.cpu.inst     50090213                       # number of overall hits
system.cpu.icache.overall_hits::total        50090213                       # number of overall hits
system.cpu.icache.demand_misses::.cpu.inst        43801                       # number of demand (read+write) misses
system.cpu.icache.demand_misses::total          43801                       # number of demand (read+write) misses
system.cpu.icache.overall_misses::.cpu.inst        43801                       # number of overall misses
system.cpu.icache.overall_misses::total         43801                       # number of overall misses
system.cpu.icache.demand_miss_latency::.cpu.inst    576452889                       # number of demand (read+write) miss cycles
system.cpu.icache.demand_miss_latency::total    576452889                       # number of demand (read+write) miss cycles
system.cpu.icache.overall_miss_latency::.cpu.inst    576452889                       # number of overall miss cycles
system.cpu.icache.overall_miss_latency::total    576452889                       # number of overall miss cycles
system.cpu.icache.demand_accesses::.cpu.inst     50134014                       # number of demand (read+write) accesses
system.cpu.icache.demand_accesses::total     50134014                       # number of demand (read+write) accesses
system.cpu.icache.overall_accesses::.cpu.inst     50134014                       # number of overall (read+write) accesses
[...]
system.mem_ctrls.dram.bw_total::total        84501588                       # Total bandwidth to/from this memory (bytes/s)
system.mem_ctrls.dram.readBursts                71563                       # Number of DRAM read bursts
system.mem_ctrls.dram.writeBursts                5410                       # Number of DRAM write bursts
system.mem_ctrls.dram.perBankRdBursts::0         4259                       # Per bank write bursts
system.mem_ctrls.dram.perBankRdBursts::1         4135                       # Per bank write bursts
system.mem_ctrls.dram.perBankRdBursts::2         4263                       # Per bank write bursts
system.mem_ctrls.dram.perBankRdBursts::3         4312                       # Per bank write bursts
system.mem_ctrls.dram.perBankRdBursts::4         4459                       # Per bank write bursts
system.mem_ctrls.dram.perBankRdBursts::5         4404                       # Per bank write bursts
system.mem_ctrls.dram.perBankRdBursts::6         4385                       # Per bank write bursts
system.mem_ctrls.dram.perBankRdBursts::7         4454                       # Per bank write bursts
system.mem_ctrls.dram.perBankRdBursts::8         4398                       # Per bank write bursts
system.mem_ctrls.dram.perBankRdBursts::9         4502                       # Per bank write bursts
system.mem_ctrls.dram.perBankRdBursts::10         4617                       # Per bank write bursts
system.mem_ctrls.dram.perBankRdBursts::11         4790                       # Per bank write bursts
system.mem_ctrls.dram.perBankRdBursts::12         4630                       # Per bank write bursts
system.mem_ctrls.dram.perBankRdBursts::13         4672                       # Per bank write bursts
system.mem_ctrls.dram.perBankRdBursts::14         4759                       # Per bank write bursts
system.mem_ctrls.dram.perBankRdBursts::15         4524                       # Per bank write bursts
system.mem_ctrls.dram.perBankWrBursts::0          199                       # Per bank write bursts
system.mem_ctrls.dram.perBankWrBursts::1           91                       # Per bank write bursts
system.mem_ctrls.dram.perBankWrBursts::2          215                       # Per bank write bursts
system.mem_ctrls.dram.perBankWrBursts::3          242                       # Per bank write bursts
system.mem_ctrls.dram.perBankWrBursts::4          310                       # Per bank write bursts
system.mem_ctrls.dram.perBankWrBursts::5          278                       # Per bank write bursts
system.mem_ctrls.dram.perBankWrBursts::6          263                       # Per bank write bursts
system.mem_ctrls.dram.perBankWrBursts::7          327                       # Per bank write bursts
system.mem_ctrls.dram.perBankWrBursts::8          286                       # Per bank write bursts
system.mem_ctrls.dram.perBankWrBursts::9          360                       # Per bank write bursts
system.mem_ctrls.dram.perBankWrBursts::10          452                       # Per bank write bursts
system.mem_ctrls.dram.perBankWrBursts::11          586                       # Per bank write bursts
system.mem_ctrls.dram.perBankWrBursts::12          450                       # Per bank write bursts
system.mem_ctrls.dram.perBankWrBursts::13          467                       # Per bank write bursts
system.mem_ctrls.dram.perBankWrBursts::14          542                       # Per bank write bursts
system.mem_ctrls.dram.perBankWrBursts::15          342                       # Per bank write bursts
system.mem_ctrls.dram.totQLat               848156149                       # Total ticks spent queuing
system.mem_ctrls.dram.totBusLat             357815000                       # Total ticks spent in databus transfers
system.mem_ctrls.dram.totMemAccLat         2189962399                       # Total ticks spent from burst creation until serviced by the DRAM
system.mem_ctrls.dram.avgQLat                11851.88                       # Average queueing delay per DRAM burst
system.mem_ctrls.dram.avgBusLat               5000.00                       # Average bus latency per DRAM burst
system.mem_ctrls.dram.avgMemAccLat           30601.88                       # Average memory access latency per DRAM burst
system.mem_ctrls.dram.readRowHits               64264                       # Number of row buffer hits during reads
system.mem_ctrls.dram.writeRowHits               2843                       # Number of row buffer hits during writes
system.mem_ctrls.dram.readRowHitRate            89.80                       # Row buffer hit rate for reads
system.mem_ctrls.dram.writeRowHitRate           52.55                       # Row buffer hit rate for writes
system.mem_ctrls.dram.bytesPerActivate::samples         9865                       # Bytes accessed per row activation
system.mem_ctrls.dram.bytesPerActivate::mean   499.342727                       # Bytes accessed per row activation
system.mem_ctrls.dram.bytesPerActivate::gmean   303.471117                       # Bytes accessed per row activation
system.mem_ctrls.dram.bytesPerActivate::stdev   414.069587                       # Bytes accessed per row activation
system.mem_ctrls.dram.bytesPerActivate::0-127         2118     21.47%     21.47% # Bytes accessed per row activation
system.mem_ctrls.dram.bytesPerActivate::128-255         2203     22.33%     43.80% # Bytes accessed per row activation
system.mem_ctrls.dram.bytesPerActivate::256-383         1087     11.02%     54.82% # Bytes accessed per row activation
system.mem_ctrls.dram.bytesPerActivate::384-511          296      3.00%     57.82% # Bytes accessed per row activation
system.mem_ctrls.dram.bytesPerActivate::512-639          220      2.23%     60.05% # Bytes accessed per row activation
system.mem_ctrls.dram.bytesPerActivate::640-767          230      2.33%     62.38% # Bytes accessed per row activation
system.mem_ctrls.dram.bytesPerActivate::768-895          201      2.04%     64.42% # Bytes accessed per row activation
system.mem_ctrls.dram.bytesPerActivate::896-1023          169      1.71%     66.13% # Bytes accessed per row activation
system.mem_ctrls.dram.bytesPerActivate::1024-1151         3341     33.87%    100.00% # Bytes accessed per row activation
system.mem_ctrls.dram.bytesPerActivate::total         9865                       # Bytes accessed per row activation
system.mem_ctrls.dram.bytesRead               4580032                       # Total number of bytes read from DRAM
system.mem_ctrls.dram.bytesWritten             346240                       # Total number of bytes written to DRAM
system.mem_ctrls.dram.avgRdBW               78.522660                       # Average DRAM read bandwidth in MiBytes/s
system.mem_ctrls.dram.avgWrBW                5.936134                       # Average DRAM write bandwidth in MiBytes/s
system.mem_ctrls.dram.peakBW                 12800.00                       # Theoretical peak bandwidth in MiByte/s
system.mem_ctrls.dram.busUtil                    0.66                       # Data bus utilization in percentage
system.mem_ctrls.dram.busUtilRead                0.61                       # Data bus utilization in percentage for reads
system.mem_ctrls.dram.busUtilWrite               0.05                       # Data bus utilization in percentage for writes
system.mem_ctrls.dram.pageHitRate               87.18                       # Row buffer hit rate, read and write combined
system.mem_ctrls.dram.power_state.pwrStateResidencyTicks::UNDEFINED  58327519500                       # Cumulative time (in ticks) in various power states
system.mem_ctrls.dram.rank0.actEnergy        29745240                       # Energy for activate commands per rank (pJ)
system.mem_ctrls.dram.rank0.preEnergy        15809970                       # Energy for precharge commands per rank (pJ)
system.mem_ctrls.dram.rank0.readEnergy      247550940                       # Energy for read commands per rank (pJ)
system.mem_ctrls.dram.rank0.writeEnergy      10048500                       # Energy for write commands per rank (pJ)
system.mem_ctrls.dram.rank0.refreshEnergy 4604268240.000001                       # Energy for refresh commands per rank (pJ)
system.mem_ctrls.dram.rank0.actBackEnergy   3782702970                       # Energy for active background per rank (pJ)
system.mem_ctrls.dram.rank0.preBackEnergy  19212333600                       # Energy for precharge background per rank (pJ)
system.mem_ctrls.dram.rank0.actPowerDownEnergy            0                       # Energy for active power-down per rank (pJ)
system.mem_ctrls.dram.rank0.prePowerDownEnergy            0                       # Energy for precharge power-down per rank (pJ)
system.mem_ctrls.dram.rank0.selfRefreshEnergy            0                       # Energy for self refresh per rank (pJ)
system.mem_ctrls.dram.rank0.totalEnergy   27902459460                       # Total energy per rank (pJ)
system.mem_ctrls.dram.rank0.averagePower   478.375554                       # Core power per rank (mW)
system.mem_ctrls.dram.rank0.totalIdleTime            0                       # Total Idle time Per DRAM Rank
system.mem_ctrls.dram.rank0.pwrStateTime::IDLE  49899879158                       # Time in different power states
system.mem_ctrls.dram.rank0.pwrStateTime::REF   1947660000                       # Time in different power states
system.mem_ctrls.dram.rank0.pwrStateTime::SREF            0                       # Time in different power states
system.mem_ctrls.dram.rank0.pwrStateTime::PRE_PDN            0                       # Time in different power states
system.mem_ctrls.dram.rank0.pwrStateTime::ACT   6479980342                       # Time in different power states
system.mem_ctrls.dram.rank0.pwrStateTime::ACT_PDN            0                       # Time in different power states
system.mem_ctrls.dram.rank1.actEnergy        40698000                       # Energy for activate commands per rank (pJ)
system.mem_ctrls.dram.rank1.preEnergy        21627705                       # Energy for precharge commands per rank (pJ)
system.mem_ctrls.dram.rank1.readEnergy      263408880                       # Energy for read commands per rank (pJ)
system.mem_ctrls.dram.rank1.writeEnergy      18191700                       # Energy for write commands per rank (pJ)
system.mem_ctrls.dram.rank1.refreshEnergy 4604268240.000001                       # Energy for refresh commands per rank (pJ)
system.mem_ctrls.dram.rank1.actBackEnergy   4625101980                       # Energy for active background per rank (pJ)
system.mem_ctrls.dram.rank1.preBackEnergy  18502944960                       # Energy for precharge background per rank (pJ)
system.mem_ctrls.dram.rank1.actPowerDownEnergy            0                       # Energy for active power-down per rank (pJ)
system.mem_ctrls.dram.rank1.prePowerDownEnergy            0                       # Energy for precharge power-down per rank (pJ)
system.mem_ctrls.dram.rank1.selfRefreshEnergy            0                       # Energy for self refresh per rank (pJ)
system.mem_ctrls.dram.rank1.totalEnergy   28076241465                       # Total energy per rank (pJ)
system.mem_ctrls.dram.rank1.averagePower   481.354971                       # Core power per rank (mW)
system.mem_ctrls.dram.rank1.totalIdleTime            0                       # Total Idle time Per DRAM Rank
system.mem_ctrls.dram.rank1.pwrStateTime::IDLE  48045371317                       # Time in different power states
system.mem_ctrls.dram.rank1.pwrStateTime::REF   1947660000                       # Time in different power states
system.mem_ctrls.dram.rank1.pwrStateTime::SREF            0                       # Time in different power states
system.mem_ctrls.dram.rank1.pwrStateTime::PRE_PDN            0                       # Time in different power states
system.mem_ctrls.dram.rank1.pwrStateTime::ACT   8334488183                       # Time in different power states
system.mem_ctrls.dram.rank1.pwrStateTime::ACT_PDN            0                       # Time in different power states
system.mem_ctrls.power_state.pwrStateResidencyTicks::UNDEFINED  58327519500                       # Cumulative time (in ticks) in various power states
system.membus.trans_dist::ReadResp              59108                       # Transaction distribution
system.membus.trans_dist::WritebackDirty         5440                       # Transaction distribution
system.membus.trans_dist::CleanEvict              806                       # Transaction distribution
system.membus.trans_dist::ReadExReq             12464                       # Transaction distribution
system.membus.trans_dist::ReadExResp            12464                       # Transaction distribution
system.membus.trans_dist::ReadSharedReq         59108                       # Transaction distribution
system.membus.pkt_count_system.l2.mem_side_port::system.mem_ctrls.port       149390                       # Packet count per connected requestor and responder (bytes)
system.membus.pkt_count_system.l2.mem_side_port::total       149390                       # Packet count per connected requestor and responder (bytes)
system.membus.pkt_count::total                 149390                       # Packet count per connected requestor and responder (bytes)
system.membus.pkt_size_system.l2.mem_side_port::system.mem_ctrls.port      4928768                       # Cumulative packet size per connected requestor and responder (bytes)
system.membus.pkt_size_system.l2.mem_side_port::total      4928768                       # Cumulative packet size per connected requestor and responder (bytes)
system.membus.pkt_size::total                 4928768                       # Cumulative packet size per connected requestor and responder (bytes)
system.membus.snoops                                0                       # Total snoops (count)
system.membus.snoopTraffic                          0                       # Total snoop traffic (bytes)
system.membus.snoop_fanout::samples             71572                       # Request fanout histogram
system.membus.snoop_fanout::mean                    0                       # Request fanout histogram
system.membus.snoop_fanout::stdev                   0                       # Request fanout histogram
system.membus.snoop_fanout::underflows              0      0.00%      0.00% # Request fanout histogram
system.membus.snoop_fanout::0                   71572    100.00%    100.00% # Request fanout histogram
system.membus.snoop_fanout::1                       0      0.00%    100.00% # Request fanout histogram
system.membus.snoop_fanout::overflows               0      0.00%    100.00% # Request fanout histogram
system.membus.snoop_fanout::min_value               0                       # Request fanout histogram
system.membus.snoop_fanout::max_value               0                       # Request fanout histogram
system.membus.snoop_fanout::total               71572                       # Request fanout histogram
system.membus.power_state.pwrStateResidencyTicks::UNDEFINED  58327519500                       # Cumulative time (in ticks) in various power states
system.membus.reqLayer4.occupancy           139564870                       # Layer occupancy (ticks)
system.membus.reqLayer4.utilization               0.2                       # Layer utilization (%)
system.membus.respLayer1.occupancy          374874563                       # Layer occupancy (ticks)
system.membus.respLayer1.utilization              0.6                       # Layer utilization (%)
system.tol2bus.trans_dist::ReadResp            107129                       # Transaction distribution
system.tol2bus.trans_dist::WritebackDirty       153076                       # Transaction distribution
system.tol2bus.trans_dist::WritebackClean        51256                       # Transaction distribution
system.tol2bus.trans_dist::CleanEvict             973                       # Transaction distribution
system.tol2bus.trans_dist::HardPFReq            61932                       # Transaction distribution
system.tol2bus.trans_dist::ReadExReq            93299                       # Transaction distribution
system.tol2bus.trans_dist::ReadExResp           93298                       # Transaction distribution
system.tol2bus.trans_dist::ReadCleanReq         41415                       # Transaction distribution
system.tol2bus.trans_dist::ReadSharedReq        65715                       # Transaction distribution
system.tol2bus.pkt_count_system.cpu.icache.mem_side_port::system.l2.cpu_side_port       123732                       # Packet count per connected requestor and responder (bytes)
system.tol2bus.pkt_count_system.cpu.dcache.mem_side_port::system.l2.cpu_side_port       476014                       # Packet count per connected requestor and responder (bytes)
system.tol2bus.pkt_count::total                599746                       # Packet count per connected requestor and responder (bytes)
system.tol2bus.pkt_size_system.cpu.icache.mem_side_port::system.l2.cpu_side_port      5268288                       # Cumulative packet size per connected requestor and responder (bytes)
system.tol2bus.pkt_size_system.cpu.dcache.mem_side_port::system.l2.cpu_side_port     20288000                       # Cumulative packet size per connected requestor and responder (bytes)
system.tol2bus.pkt_size::total               25556288                       # Cumulative packet size per connected requestor and responder (bytes)
system.tol2bus.snoops                           68347                       # Total snoops (count)
system.tol2bus.snoopTraffic                    348288                       # Total snoop traffic (bytes)
system.tol2bus.snoop_fanout::samples           268775                       # Request fanout histogram
system.tol2bus.snoop_fanout::mean            0.000625                       # Request fanout histogram
system.tol2bus.snoop_fanout::stdev           0.024993                       # Request fanout histogram
system.tol2bus.snoop_fanout::underflows             0      0.00%      0.00% # Request fanout histogram
system.tol2bus.snoop_fanout::0                 268607     99.94%     99.94% # Request fanout histogram
system.tol2bus.snoop_fanout::1                    168      0.06%    100.00% # Request fanout histogram
system.tol2bus.snoop_fanout::2                      0      0.00%    100.00% # Request fanout histogram
system.tol2bus.snoop_fanout::3                      0      0.00%    100.00% # Request fanout histogram
system.tol2bus.snoop_fanout::4                      0      0.00%    100.00% # Request fanout histogram
system.tol2bus.snoop_fanout::overflows              0      0.00%    100.00% # Request fanout histogram
system.tol2bus.snoop_fanout::min_value              0                       # Request fanout histogram
system.tol2bus.snoop_fanout::max_value              1                       # Request fanout histogram
system.tol2bus.snoop_fanout::total             268775                       # Request fanout histogram
system.tol2bus.power_state.pwrStateResidencyTicks::UNDEFINED  58327519500                       # Cumulative time (in ticks) in various power states
system.tol2bus.reqLayer0.occupancy          398551000                       # Layer occupancy (ticks)
system.tol2bus.reqLayer0.utilization              0.7                       # Layer utilization (%)
system.tol2bus.respLayer0.occupancy          62129486                       # Layer occupancy (ticks)
system.tol2bus.respLayer0.utilization             0.1                       # Layer utilization (%)
system.tol2bus.respLayer1.occupancy         238524986                       # Layer occupancy (ticks)
system.tol2bus.respLayer1.utilization             0.4                       # Layer utilization (%)
system.voltage_domain.voltage                       1                       # Voltage in Volts

---------- End Simulation Statistics   ----------
